223
symmetry c1
C       51.764969726     16.088682160     12.158576878
C       51.138644684     14.972109079     13.026283937
S       49.436394559     14.478468040     12.674876911
C       48.593507501     16.085478156     12.264541881
H       52.802709802     16.140643164     12.565772902
H       51.256125690     17.065634227     12.402090891
H       51.864991735     14.132372017     12.963974935
H       51.221280686     15.241243098     14.088740014
H       47.505747422     15.932545148     12.292555884
H       48.669167501     16.833638211     12.996499936
H       48.912294522     16.475381187     11.324974816
C       49.245037546     15.849942140     16.953463218
O       49.876807590     14.555940050     16.631439198
C       48.669005504     16.415990179     15.649177129
H       48.443908489     15.719870129     17.663952272
H       50.002617602     14.091485015     17.549474263
H       49.502121564     16.819131208     15.025657080
H       47.980715452     15.675067131     15.205189093
H       48.042063457     17.211557240     16.135829160
C       46.296517330     16.516012188     20.996522512
C       46.923868379     15.751501133     19.784109424
C       46.125389319     14.696643057     18.939885362
O       45.481549272     13.769247990     19.543566408
O       46.172528323     14.728318062     17.684032273
H       47.010455382     17.299693245     21.373669539
H       46.146327323     15.798793137     21.782493567
H       47.230716400     16.560811191     19.129784375
H       47.877126449     15.302194104     20.124397447
H       41.949761018     14.547704046     22.725643638
C       41.448880982     14.509056046     16.882881213
H       41.323082977     14.242808028     17.929072291
H       41.350621975     13.570442977     16.231610167
H       42.359499051     15.125139090     16.701028202
C       37.111303673     14.074770015     19.985142438
O       38.236717755     13.337277961     20.493435474
C       35.894968583     13.306989956     20.494277474
H       37.032591668     15.074600086     20.341138463
H       38.963120804     13.957849005     20.663961488
H       35.719618573     12.269563884     20.155429449
H       35.909383583     13.137799946     21.560640551
H       35.028690519     13.869333998     20.244659459
C       32.004330303     13.599064978     17.004862226
C       32.392019330     12.389569891     17.831082286
C       31.662109280     11.146067804     17.477380260
O       30.435380191     11.295885816     17.219568237
O       32.220741318      9.901545712     17.699790272
H       32.643088349     14.417640036     17.316128247
H       30.928261226     13.833200997     17.266766244
H       33.411887407     12.276761885     17.783951278
H       32.398008330     12.541484905     18.933184364
H       31.512606267      9.280962667     17.912317291
C       42.131937033     14.095231013     26.415302902
C       40.831564939     14.392630034     25.640004843
C       40.346115903     13.533797976     24.620651772
C       39.970955877     15.496015114     26.002233873
C       39.209184822     13.899919998     23.888555718
C       38.808237794     15.823150140     25.273616820
C       38.474067769     15.015593081     24.198715743
O       37.301607686     15.184465094     23.523936692
H       42.469239056     14.966563079     27.033126945
H       42.843970083     13.886136000     25.627058845
H       40.911312946     12.584704906     24.382064754
H       40.371577907     16.051611156     26.902727939
H       38.732604786     13.212937950     23.237381671
H       38.161191747     16.619181199     25.546638842
H       36.617109638     15.386428110     24.140476739
C       47.837591443     11.110511797     18.972928365
O       47.860813444      9.740839699     19.076949371
H       46.781890366     11.326197814     18.711220348
H       48.450822486     11.365298816     18.074238300
H       46.989332383      9.499983685     19.315261393
C       45.538488278     13.208315952     23.611915701
S       46.933892377     13.335463963     24.688138779
H       45.363899268     14.055134014     23.017074657
H       44.684140219     13.122587947     24.294069747
H       42.082998028      9.203303662     22.301425606
C       37.995507737      8.620674621     24.790712782
C       37.472840696      9.700144699     23.817088717
C       37.040972666      8.298773597     25.919749866
C       37.140722673     11.057637798     24.440570760
H       38.060752741      7.734716556     24.063878734
H       38.128122747      9.852689709     22.962921652
H       36.631735637      9.245452666     23.301916678
H       36.021022593      7.972917572     25.527352839
H       37.358894690      7.536877540     26.589458913
H       36.874464653      9.210049661     26.549467914
H       38.023391737     11.515232828     24.937333796
H       36.809816651     11.713013841     23.614516702
H       36.313464616     11.058800798     25.154101810
C       39.963413879      2.659524190     25.900300867
C       39.677668854      3.776616273     24.851951788
C       38.354428763      4.195818303     24.653780776
C       40.727649932      4.249460307     24.019136729
C       38.050879738      5.168821374     23.684511707
C       40.449428913      5.325332382     23.070106663
C       39.103904813      5.670356409     22.899654649
O       38.842235797      6.551401470     21.849884576
H       40.857644943      2.161690158     25.601580844
H       39.232834823      1.898813136     25.780531857
H       37.536157702      3.799045276     25.332688823
H       41.703055002      3.845833276     24.069432735
H       36.978040664      5.509072396     23.361371684
H       41.264412968      5.630933407     22.431308616
H       39.680680857      6.716547482     21.282082531
C       31.862071292      7.381858531     23.490205690
C       32.508200343      7.798866560     22.070878589
S       34.288790471      7.603991545     22.203986601
C       34.368584473      5.822488417     21.813024570
H       31.907050300      8.260915595     24.190718742
H       32.318099327      6.477663468     23.873614721
H       32.115044312      7.280848527     21.221436527
H       32.143090314      8.808620636     21.966942584
H       33.829026434      5.648910405     20.863099501
H       35.391435549      5.600447406     21.656931559
H       33.860818440      5.284096382     22.585238626
C       36.325787614      6.326405454     12.128580873
C       36.618191636      7.760171559     11.923222857
C       36.184775604      8.478810609     10.890354784
C       37.430800697      8.636137619     12.646621909
N       36.731128645      9.759764702     10.903181786
C       37.409356694      9.957731715     12.115063871
C       38.233824754      8.489951610     13.816908995
C       38.047560739     11.063714796     12.649647909
C       38.861876798      9.536534688     14.464585043
C       38.665232786     10.849561780     13.887311001
H       35.592757562      6.102656438     11.461299824
H       35.951524586      6.187244447     13.113440943
H       35.608107565      8.100304585     10.090378724
H       36.448511624     10.514924756     10.222909738
H       38.303278760      7.452719535     14.227472026
H       37.920986732     12.064850866     12.320166887
H       39.524650844      9.373176676     15.327308104
H       38.931987804     11.724401847     14.396154037
C       40.628591925      4.876623349     15.106268090
C       40.751357935      5.558857402     16.473383188
C       42.026635025      5.724408414     17.135133234
C       39.597086849      5.956845431     17.113009233
C       42.160000038      6.277917450     18.382419324
C       39.697840858      6.528533472     18.451385328
C       40.986067953      6.678040481     19.028250369
O       41.097439957      7.163892518     20.263760461
H       41.434635981      5.150537368     14.343553030
H       39.737695858      5.163901369     14.526197044
H       42.954074094      5.521793399     16.566311195
H       38.647217783      5.786710415     16.507539187
H       43.122995102      6.470876468     18.766720352
H       38.766926789      6.910544496     18.842381359
H       42.031821026      7.282102523     20.546721480
C       36.117809599      2.720085198     16.228548168
H       35.355121543      2.568900184     16.997966226
H       36.015634595      3.768576271     16.015767155
H       36.172464602      2.026385144     15.343870104
C       45.779133294      7.058619509     16.846106215
H       45.667307288      8.013368579     17.403107254
H       45.509537277      6.340519458     17.539811264
H       46.805662368      6.926188500     16.794396210
C       48.877349520      8.810015632     13.019830938
C       49.531748563      9.690043700     14.105788014
C       49.475906563      9.270830669     15.429328112
C       50.139906612     10.916746785     13.846954997
C       49.957400597     10.121002730     16.428828183
C       50.709601651     11.707023840     14.839251066
C       50.665853647     11.323280814     16.190698167
H       49.239514545      7.786664558     12.944903932
H       49.149250538      9.339119675     12.082796870
H       48.938629526      8.326565600     15.696746131
H       50.173149612     11.137588802     12.789442922
H       49.840246586      9.845590711     17.459194259
H       51.098400680     12.654995912     14.670543056
H       50.983690669     11.982363865     16.996734222
C       41.696036000      8.179999589     12.432981894
H       40.528451920      8.262534597     12.476581897
H       41.724106006      7.106091513     12.600128910
H       42.082251030      8.748038631     13.279686955
C       45.033465240     12.568304904     11.648194840
C       45.252322256     12.260040884     13.129907944
C       46.549334349     12.942570932     13.634972983
C       46.892585378     12.464874898     15.026969080
N       45.832071302     12.617885907     16.011968155
H       45.833231301     12.194527878     11.003303794
H       45.102977249     13.602754979     11.585378834
H       44.453081202     12.928897929     13.566639976
H       45.095239249     11.246774812     13.437287968
H       47.359709408     12.655172911     13.050829940
H       46.296478335     13.977409005     13.541006974
H       47.104037394     11.398074822     14.966730077
H       47.802218441     12.995154937     15.326870104
H       45.892460306     13.532479976     16.581886194
H       34.983022517      8.170889586     16.618233199
H       34.382902475      9.726312699     17.111182232
H       35.752647573      9.606251689     16.023234153
C       35.301203541      9.142969660     16.886731215
C       36.328592613      9.240804665     18.007570296
C       37.513109699      9.752556705     17.872311284
C       38.615890780     10.061595726     18.857136360
C       39.732718862     10.635203766     18.461431330
C       40.887301946     11.101050801     19.235938385
C       42.124753034     11.482208829     18.773558354
C       42.856961083     11.206591806     17.594560265
C       43.975971168     11.902472859     17.399753255
C       44.946712234     11.694600843     16.368338181
C       38.296235754      9.747143703     20.269253459
C       42.295136043     10.255707736     16.500398189
H       36.022300594      8.689491624     18.920088360
H       37.685790713     10.182170731     16.946134219
H       39.814675866     10.817035778     17.366732250
H       40.672896930     11.468365827     20.272766460
H       42.774962078     11.980143860     19.511459404
H       44.083824175     12.705546913     18.119762303
H       44.939715236     10.833206779     15.706729129
H       38.254754756      8.643624620     20.466302471
H       39.087070812     10.002454718     20.918289508
H       37.300837685     10.229515738     20.464264472
H       41.816437011     10.884515784     15.778747136
H       43.067737102      9.665411695     16.006236154
H       41.627996998      9.489388683     16.916811217
O       44.331790194     16.628809198     16.918706216
H       43.790159150     16.534879188     17.755357281
H       45.056825246     15.903023143     17.063588226
O       44.910373236      9.962626716     19.978397439
H       44.404386195      9.874878709     19.159779380
H       44.364669194     10.678761769     20.411690469
H       46.640702357     12.815416921     14.005497009
