6

C          -3.05109526      4.51812485         4.01698 
C          -3.05109526      4.51812485         5.34714 
H          -3.05109526      5.44146585         3.44403 
H           -3.05109526      3.59478385         3.44403 
H           -2.18343853      4.83392608         5.92009 
H           -3.91875198      4.20232363         5.92009 
