6
symmetry c1
C       -0.902185880     -0.612618090      0.009332230
C       -1.098740230      0.788740750     -0.139340300
C        0.405207980     -0.149373630      0.062531780
O        1.556135490      0.002139920      0.017578280
H       -1.280599040     -1.728089890     -0.239053550
H       -0.999040550      1.375680880      0.761370330
