6
symmetry c1
C       -1.120191050      0.000000000     -2.661941306
C       -1.120191050      0.000000000     -1.331783306
H       -1.120191050      0.923341000     -3.234891306
H       -1.120191050     -0.923341000     -3.234891306
H       -2.043532050      0.000000000     -0.758833306
H       -0.196850050      0.000000000     -0.758833306
