6
symmetry c1
C       -1.120191050      0.000000000     -2.661941306
C       -1.120191050      0.000000000     -1.331783306
H       -1.120191050      0.923341000     -3.234891306
H       -1.120191050     -0.923341000     -3.234891306
H       -1.614941899     -0.779602591     -0.758833306
H       -0.625440201      0.779602591     -0.758833306
